datafiles/case39fromraw.m
function mpc = case39fromraw
%CASE39FROMRAW

%% MATPOWER Case Format : Version 2
mpc.version = '2';

%%-----  Power Flow Data  -----%%
%% system MVA base
mpc.baseMVA = 100;

%% bus data
%	bus_i	type	Pd	Qd	Gs	Bs	area	Vm	Va	baseKV	zone	Vmax	Vmin
mpc.bus = [
	1	1	0	0	0	0	1	1.04787	-7.3624	200	1	1.1	0.9;
	2	1	0	0	0	0	1	1.05008	-4.6877	200	1	1.1	0.9;
	3	1	322	2.4	0	0	1	1.0322	-7.5274	200	1	1.1	0.9;
	4	1	500	184	0	0	1	1.00727	-8.5389	200	1	1.1	0.9;
	5	1	0	0	0	0	1	1.0094	-7.5571	200	1	1.1	0.9;
	6	1	0	0	0	0	1	1.01195	-6.9019	200	1	1.1	0.9;
	7	1	233.8	84	0	0	1	1.00102	-9.057	200	1	1.1	0.9;
	8	1	522	176	0	0	1	0.99989	-9.5439	200	1	1.1	0.9;
	9	1	0	0	0	0	1	1.02982	-9.2452	200	1	1.1	0.9;
	10	1	0	0	0	0	1	1.02148	-4.3978	200	1	1.1	0.9;
	11	1	0	0	0	0	1	1.017	-5.2485	200	1	1.1	0.9;
	12	1	7.5	88	0	0	1	1.00459	-5.207	200	1	1.1	0.9;
	13	1	0	0	0	0	1	1.0184	-5.0606	200	1	1.1	0.9;
	14	1	0	0	0	0	1	1.01518	-6.6017	200	1	1.1	0.9;
	15	1	320	153	0	0	1	1.01747	-6.6682	200	1	1.1	0.9;
	16	1	329	32.3	0	0	1	1.03323	-5.1191	200	1	1.1	0.9;
	17	1	0	0	0	0	1	1.03511	-6.2298	200	1	1.1	0.9;
	18	1	158	30	0	0	1	1.03267	-7.1512	200	1	1.1	0.9;
	19	1	0	0	0	0	1	1.05009	0.0472	200	1	1.1	0.9;
	20	1	628	103	0	0	1	0.988	-0.9371	200	1	1.1	0.9;
	21	1	274	115	0	0	1	1.03312	-2.718	200	1	1.1	0.9;
	22	1	0	0	0	0	1	1.05102	1.7205	200	1	1.1	0.9;
	23	1	247.5	84.6	0	0	1	1.04579	1.5237	200	1	1.1	0.9;
	24	1	308.6	-92.2	0	0	1	1.0387	-4.9998	200	1	1.1	0.9;
	25	1	224	47.2	0	0	1	1.05873	-3.2924	200	1	1.1	0.9;
	26	1	139	17	0	0	1	1.05326	-4.4534	200	1	1.1	0.9;
	27	1	281	75.5	0	0	1	1.03911	-6.4202	200	1	1.1	0.9;
	28	1	206	27.6	0	0	1	1.05097	-0.9437	200	1	1.1	0.9;
	29	1	283.5	26.9	0	0	1	1.05068	1.8129	200	1	1.1	0.9;
	30	1	0	0	0	0	1	1.04748	-2.3875	100	1	1.1	0.9;
	31	1	9.2	4.6	0	0	1	0.98198	-0.0051	100	1	1.1	0.9;
	32	1	0	0	0	0	1	0.98308	2.5514	100	1	1.1	0.9;
	33	1	0	0	0	0	1	0.99719	4.5982	100	1	1.1	0.9;
	34	1	0	0	0	0	1	1.00424	4.2306	100	1	1.1	0.9;
	35	1	0	0	0	0	1	1.04928	6.4371	100	1	1.1	0.9;
	36	1	0	0	0	0	1	1.06349	9.3701	100	1	1.1	0.9;
	37	1	0	0	0	0	1	1.02828	3.1552	100	1	1.1	0.9;
	38	1	0	0	0	0	1	1.0265	8.5323	100	1	1.1	0.9;
	39	1	1104	250	0	0	1	1.02999	-8.9738	100	1	1.1	0.9;
	40	2	0	0	0	0	1	1.0475	-2.3862	22	1	1.1	0.9;
	41	3	0	0	0	0	1	0.982	-0.002	20	1	1.1	0.9;
	42	2	0	0	0	0	1	0.9831	2.5552	20	1	1.1	0.9;
	43	2	0	0	0	0	1	0.9972	4.6018	20	1	1.1	0.9;
	44	2	0	0	0	0	1	1.00426	4.2335	20	1	1.1	0.9;
	45	2	0	0	0	0	1	1.0493	6.4405	20	1	1.1	0.9;
	46	2	0	0	0	0	1	1.0635	9.373	20	1	1.1	0.9;
	47	2	0	0	0	0	1	1.02828	3.1582	20	1	1.1	0.9;
	48	2	0	0	0	0	1	1.0265	8.5368	26	1	1.1	0.9;
	49	2	0	0	0	0	1	1.03	-8.9684	26	1	1.1	0.9;
];

%% generator data
%	bus	Pg	Qg	Qmax	Qmin	Vg	mBase	status	Pmax	Pmin	Pc1	Pc2	Qc1min	Qc1max	Qc2min	Qc2max	ramp_agc	ramp_10	ramp_30	ramp_q	apf	mu_Pmax	mu_Pmin	mu_Qmax	mu_Qmin
mpc.gen = [
	40	250	145.029	160	-160	1.0475	590	1	500	0	0	0	0	0	0	0	0	0	0	0	0	0.0000	0.0000	0.0000	0.0000;
	41	519.904	198.251	1000	-1000	0.982	835	1	10000	0	0	0	0	0	0	0	0	0	0	0	0	0.0000	0.0000	0.0000	0.0000;
	42	650	199.379	215	-215	0.9831	835	1	1300	0	0	0	0	0	0	0	0	0	0	0	0	0.0000	0.0000	0.0000	0.0000;
	43	632	120.573	330	-330	0.9972	835	1	1264	0	0	0	0	0	0	0	0	0	0	0	0	0.0000	0.0000	0.0000	0.0000;
	44	508	140	140	-140	1.0123	835	1	1024	0	0	0	0	0	0	0	0	0	0	0	0	0.0000	0.0000	0.0000	0.0000;
	45	650	211.063	250	-250	1.0493	835	1	1300	0	0	0	0	0	0	0	0	0	0	0	0	0.0000	0.0000	0.0000	0.0000;
	46	560	97.23	115	-115	1.0635	835	1	1120	0	0	0	0	0	0	0	0	0	0	0	0	0.0000	0.0000	0.0000	0.0000;
	47	540	-5	5	-5	1.0278	835	1	1080	0	0	0	0	0	0	0	0	0	0	0	0	0.0000	0.0000	0.0000	0.0000;
	48	830	16.255	30	-30	1.0265	911	1	1660	0	0	0	0	0	0	0	0	0	0	0	0	0.0000	0.0000	0.0000	0.0000;
	49	1000.013	79.63	90	-90	1.03	911	1	2000	0	0	0	0	0	0	0	0	0	0	0	0	0.0000	0.0000	0.0000	0.0000;
];

%% branch data
%	fbus	tbus	r	x	b	rateA	rateB	rateC	ratio	angle	status	angmin	angmax
mpc.branch = [
	1	2	0.0035	0.0411	0.6987	0	0	0	0	0	1	-360	360;
	2	3	0.0013	0.0151	0.2572	0	0	0	0	0	1	-360	360;
	2	25	0.007	0.0086	0.146	0	0	0	0	0	1	-360	360;
	3	4	0.0013	0.0213	0.2214	0	0	0	0	0	1	-360	360;
	3	18	0.0011	0.0133	0.2138	0	0	0	0	0	1	-360	360;
	4	5	0.0008	0.0128	0.1342	0	0	0	0	0	1	-360	360;
	4	14	0.0008	0.0129	0.1382	0	0	0	0	0	1	-360	360;
	5	6	0.0002	0.0026	0.0434	0	0	0	0	0	1	-360	360;
	5	8	0.0008	0.0112	0.1476	0	0	0	0	0	1	-360	360;
	6	7	0.0006	0.0092	0.113	0	0	0	0	0	1	-360	360;
	6	11	0.0007	0.0082	0.1389	0	0	0	0	0	1	-360	360;
	7	8	0.0004	0.0046	0.078	0	0	0	0	0	1	-360	360;
	8	9	0.0023	0.0363	0.3804	0	0	0	0	0	1	-360	360;
	10	11	0.0004	0.0043	0.0729	0	0	0	0	0	1	-360	360;
	13	10	0.0004	0.0043	0.0729	0	0	0	0	0	1	-360	360;
	13	14	0.0009	0.0101	0.1723	0	0	0	0	0	1	-360	360;
	14	15	0.0018	0.0217	0.366	0	0	0	0	0	1	-360	360;
	15	16	0.0009	0.0094	0.171	0	0	0	0	0	1	-360	360;
	16	17	0.0007	0.0089	0.1342	0	0	0	0	0	1	-360	360;
	16	19	0.0016	0.0195	0.304	0	0	0	0	0	1	-360	360;
	16	21	0.0008	0.0135	0.2548	0	0	0	0	0	1	-360	360;
	16	24	0.0003	0.0059	0.068	0	0	0	0	0	1	-360	360;
	17	18	0.0007	0.0082	0.1319	0	0	0	0	0	1	-360	360;
	17	27	0.0013	0.0173	0.3216	0	0	0	0	0	1	-360	360;
	21	22	0.0008	0.014	0.2565	0	0	0	0	0	1	-360	360;
	22	23	0.0006	0.0096	0.1846	0	0	0	0	0	1	-360	360;
	23	24	0.0022	0.035	0.361	0	0	0	0	0	1	-360	360;
	25	26	0.0032	0.0323	0.513	0	0	0	0	0	1	-360	360;
	26	27	0.0014	0.0147	0.2396	0	0	0	0	0	1	-360	360;
	26	28	0.0043	0.0474	0.7802	0	0	0	0	0	1	-360	360;
	26	29	0.0057	0.0625	1.029	0	0	0	0	0	1	-360	360;
	28	29	0.0014	0.0151	0.249	0	0	0	0	0	1	-360	360;
	1	39	0.001	0.025	0	0	0	0	1	0	1	-360	360;
	30	2	0	0.0181	0	0	0	0	0.9756	0	1	-360	360;
	31	6	0	0.025	0	0	0	0	0.9346	0	1	-360	360;
	39	9	0.001	0.025	0	0	0	0	1	0	1	-360	360;
	32	10	0	0.02	0	0	0	0	0.9346	0	1	-360	360;
	11	12	0.0016	0.0435	0	0	0	0	0.994	0	1	-360	360;
	12	13	0.0016	0.0435	0	0	0	0	1.006	0	1	-360	360;
	19	20	0.0007	0.0138	0	0	0	0	1.06	0	1	-360	360;
	33	19	0.0007	0.0142	0	0	0	0	0.9346	0	1	-360	360;
	34	20	0.0009	0.018	0	0	0	0	0.991	0	1	-360	360;
	35	22	0	0.0143	0	0	0	0	0.9756	0	1	-360	360;
	36	23	0.0005	0.0272	0	0	0	0	1	0	1	-360	360;
	37	25	0.0006	0.0232	0	0	0	0	0.9756	0	1	-360	360;
	38	29	0.0008	0.0156	0	0	0	0	0.9756	0	1	-360	360;
	40	30	0	1e-05	0	0	0	0	1	0	1	-360	360;
	41	31	0	1e-05	0	0	0	0	1	0	1	-360	360;
	42	32	0	1e-05	0	0	0	0	1	0	1	-360	360;
	43	33	0	1e-05	0	0	0	0	1	0	1	-360	360;
	34	44	0	1e-05	0	0	0	0	1	0	1	-360	360;
	35	45	0	1e-05	0	0	0	0	1	0	1	-360	360;
	46	36	0	1e-05	0	0	0	0	1	0	1	-360	360;
	37	47	0	1e-05	0	0	0	0	1	0	1	-360	360;
	48	38	0	1e-05	0	0	0	0	1	0	1	-360	360;
	49	39	0	1e-05	0	0	0	0	1	0	1	-360	360;
];



%%-----  OPF Data  -----%%
%% area data
%	area	refbus
mpc.areas = [
	1	1;
];

%% generator cost data
%	1	startup	shutdown	n	x1	y1	...	xn	yn
%	2	startup	shutdown	n	c(n-1)	...	c0
mpc.gencost = [
	2	0	0	3	0.01	0.3	0.2;
	2	0	0	3	0.01	0.3	0.2;
	2	0	0	3	0.01	0.3	0.2;
	2	0	0	3	0.01	0.3	0.2;
	2	0	0	3	0.01	0.3	0.2;
	2	0	0	3	0.01	0.3	0.2;
	2	0	0	3	0.01	0.3	0.2;
	2	0	0	3	0.01	0.3	0.2;
	2	0	0	3	0.01	0.3	0.2;
	2	0	0	3	0.01	0.3	0.2;
];
